15
educt32                                
               C     -1.6725325498428723     0.018615940375354547      0.17262265747013852
               C     -0.8541890115318932      0.11566454036212631      -1.1076734706262563
               C      0.6193009804425176      -0.2768263916019821       -0.984841086432172
               C      1.1944876483436928       0.3295073963449153      0.29172291973254527
               C      0.4030302344833554     -0.17299047135717582       1.4842448150841983
               O      -1.025073341852464      0.03376823076871439        1.365950013440031
               O     -2.8743947787191373    0.0012087964587505103       0.1660551711400792
               H     -0.9358597801928374        1.163503552688134      -1.4179872594254082
               H     -1.3801801331889765      -0.4668420975810115      -1.8642723880063505
               H      0.7151849532727191      -1.3669833745838291      -0.9442816491673913
               H      1.1701412564120135     0.055381440371386995      -1.8673605955578048
               H       1.148523831969502       1.4224403288257441      0.24495081071785665
               H      2.2434414279166197     0.053979752721020784       0.4292425860148463
               H      0.5662149045821594        -1.24642276880355       1.6253014071005498
               H      0.6819043579055695      0.33599512501137496        2.406326068515578
