15
prod32                                 
               C       0.875676147651836      -2.0506855472859558       0.3703031218680447
               C      1.0852136435451267      -0.6143831616493239     -0.04015326651421226
               C                     0.0                      0.0      -0.9335501198505288
               C     -1.0852136435451267       0.6143831616493239     -0.04015326651421226
               C      -0.875676147651836       2.0506855472859558       0.3703031218680447
               O      2.0324801760254916      0.04443689891750822      0.32436804602529223
               O     -2.0324801760254916     -0.04443689891750822      0.32436804602525526
               H      0.9941778144171788       -2.698455760558539      -0.5039930415410826
               H    -0.14399547741429256       -2.196100897179384       0.7363404218881379
               H      1.6005729994887514      -2.3343595267197457       1.1309398398379311
               H      0.4679344546577629       0.7684720118833325      -1.5510300616388573
               H     -0.4679344546577629      -0.7684720118833325      -1.5510300616386403
               H     -0.9941778144171788        2.698455760558539      -0.5039930415410826
               H     0.14399547741429256        2.196100897179384       0.7363404218881802
               H     -1.6005729994887514       2.3343595267197457       1.1309398398379311
